brotizolam
     RDKit          3D

 32 35  0  0  0  0  0  0  0  0999 V2000
   -4.2865   -1.5062   -0.1114 C   0  0  0  0  0  0  0  0  0  0  0  0
   -3.5310   -0.5414   -0.9445 C   0  0  0  0  0  0  0  0  0  0  0  0
   -3.8447   -0.2492   -2.1915 N   0  0  0  0  0  0  0  0  0  0  0  0
   -2.9004    0.6005   -2.6867 N   0  0  0  0  0  0  0  0  0  0  0  0
   -2.0211    0.8213   -1.7352 C   0  0  0  0  0  0  0  0  0  0  0  0
   -2.3576    0.1174   -0.5936 N   0  0  0  0  0  0  0  0  0  0  0  0
   -1.6213    0.1646    0.5952 C   0  0  0  0  0  0  0  0  0  0  0  0
   -2.3876   -0.1165    2.0826 S   0  0  0  0  0  0  0  0  0  0  0  0
   -0.9641    0.1963    2.9331 C   0  0  0  0  0  0  0  0  0  0  0  0
   -0.8403    0.1277    4.8371 Br  0  0  0  0  0  0  0  0  0  0  0  0
    0.0952    0.4917    2.1147 C   0  0  0  0  0  0  0  0  0  0  0  0
   -0.2710    0.4623    0.7169 C   0  0  0  0  0  0  0  0  0  0  0  0
    0.6705    0.6260   -0.3972 C   0  0  0  0  0  0  0  0  0  0  0  0
    2.0537    0.1165   -0.2116 C   0  0  0  0  0  0  0  0  0  0  0  0
    3.1013    1.0411   -0.3389 C   0  0  0  0  0  0  0  0  0  0  0  0
    4.4227    0.6297   -0.1630 C   0  0  0  0  0  0  0  0  0  0  0  0
    4.7032   -0.7042    0.1288 C   0  0  0  0  0  0  0  0  0  0  0  0
    3.6643   -1.6319    0.2337 C   0  0  0  0  0  0  0  0  0  0  0  0
    2.3369   -1.2284    0.0578 C   0  0  0  0  0  0  0  0  0  0  0  0
    1.1144   -2.4459    0.1413 Cl  0  0  0  0  0  0  0  0  0  0  0  0
    0.3913    1.2012   -1.5132 N   0  0  0  0  0  0  0  0  0  0  0  0
   -0.9115    1.8025   -1.7638 C   0  0  0  0  0  0  0  0  0  0  0  0
   -5.0008   -2.0579   -0.7323 H   0  0  0  0  0  0  0  0  0  0  0  0
   -4.8620   -0.9910    0.6627 H   0  0  0  0  0  0  0  0  0  0  0  0
   -3.6241   -2.2455    0.3481 H   0  0  0  0  0  0  0  0  0  0  0  0
    1.0920    0.7016    2.4855 H   0  0  0  0  0  0  0  0  0  0  0  0
    2.8892    2.0813   -0.5784 H   0  0  0  0  0  0  0  0  0  0  0  0
    5.2339    1.3479   -0.2615 H   0  0  0  0  0  0  0  0  0  0  0  0
    5.7340   -1.0266    0.2600 H   0  0  0  0  0  0  0  0  0  0  0  0
    3.8998   -2.6738    0.4404 H   0  0  0  0  0  0  0  0  0  0  0  0
   -0.8788    2.2668   -2.7564 H   0  0  0  0  0  0  0  0  0  0  0  0
   -1.0994    2.6221   -1.0588 H   0  0  0  0  0  0  0  0  0  0  0  0
  1  2  1  0
  2  3  2  0
  3  4  1  0
  4  5  2  0
  5  6  1  0
  6  7  1  0
  7  8  1  0
  8  9  1  0
  9 10  1  0
  9 11  2  0
 11 12  1  0
 12 13  1  0
 13 14  1  0
 14 15  2  0
 15 16  1  0
 16 17  2  0
 17 18  1  0
 18 19  2  0
 19 20  1  0
 13 21  2  0
 21 22  1  0
  6  2  1  0
 12  7  2  0
 19 14  1  0
 22  5  1  0
  1 23  1  0
  1 24  1  0
  1 25  1  0
 11 26  1  0
 15 27  1  0
 16 28  1  0
 17 29  1  0
 18 30  1  0
 22 31  1  0
 22 32  1  0
M  END
$$$$
