lormetazepam
     RDKit          3D

 34 36  0  0  0  0  0  0  0  0999 V2000
   -3.5184   -0.5699    1.1243 C   0  0  0  0  0  0  0  0  0  0  0  0
   -2.4057   -0.6069    0.1838 N   0  0  0  0  0  0  0  0  0  0  0  0
   -2.1997   -1.8059   -0.5075 C   0  0  0  0  0  0  0  0  0  0  0  0
   -2.8963   -2.8080   -0.3069 O   0  0  0  0  0  0  0  0  0  0  0  0
   -1.1179   -1.8245   -1.6213 C   0  0  0  0  0  0  0  0  0  0  0  0
   -1.3537   -0.9059   -2.6770 O   0  0  0  0  0  0  0  0  0  0  0  0
    0.1933   -1.7497   -0.9861 N   0  0  0  0  0  0  0  0  0  0  0  0
    0.5361   -0.6403   -0.4266 C   0  0  0  0  0  0  0  0  0  0  0  0
    1.8864   -0.6076    0.2092 C   0  0  0  0  0  0  0  0  0  0  0  0
    2.9753   -0.9863   -0.5912 C   0  0  0  0  0  0  0  0  0  0  0  0
    4.2703   -0.9628   -0.0732 C   0  0  0  0  0  0  0  0  0  0  0  0
    4.4838   -0.5720    1.2473 C   0  0  0  0  0  0  0  0  0  0  0  0
    3.4015   -0.2154    2.0548 C   0  0  0  0  0  0  0  0  0  0  0  0
    2.0993   -0.2372    1.5434 C   0  0  0  0  0  0  0  0  0  0  0  0
    0.8141    0.1558    2.6288 Cl  0  0  0  0  0  0  0  0  0  0  0  0
   -0.2916    0.5996   -0.4011 C   0  0  0  0  0  0  0  0  0  0  0  0
    0.3728    1.8132   -0.6635 C   0  0  0  0  0  0  0  0  0  0  0  0
   -0.3006    3.0216   -0.5335 C   0  0  0  0  0  0  0  0  0  0  0  0
    0.5213    4.4993   -0.8446 Cl  0  0  0  0  0  0  0  0  0  0  0  0
   -1.6313    3.0393   -0.1409 C   0  0  0  0  0  0  0  0  0  0  0  0
   -2.2994    1.8351    0.1026 C   0  0  0  0  0  0  0  0  0  0  0  0
   -1.6556    0.5902   -0.0448 C   0  0  0  0  0  0  0  0  0  0  0  0
   -3.7466   -1.5688    1.5084 H   0  0  0  0  0  0  0  0  0  0  0  0
   -4.4076   -0.1919    0.6100 H   0  0  0  0  0  0  0  0  0  0  0  0
   -3.2726    0.0638    1.9825 H   0  0  0  0  0  0  0  0  0  0  0  0
   -1.1743   -2.8202   -2.0784 H   0  0  0  0  0  0  0  0  0  0  0  0
   -2.1820   -1.1965   -3.0943 H   0  0  0  0  0  0  0  0  0  0  0  0
    2.8120   -1.2998   -1.6208 H   0  0  0  0  0  0  0  0  0  0  0  0
    5.1106   -1.2552   -0.6988 H   0  0  0  0  0  0  0  0  0  0  0  0
    5.4926   -0.5579    1.6536 H   0  0  0  0  0  0  0  0  0  0  0  0
    3.5806    0.0678    3.0896 H   0  0  0  0  0  0  0  0  0  0  0  0
    1.4169    1.8191   -0.9663 H   0  0  0  0  0  0  0  0  0  0  0  0
   -2.1626    3.9818   -0.0338 H   0  0  0  0  0  0  0  0  0  0  0  0
   -3.3509    1.8963    0.3722 H   0  0  0  0  0  0  0  0  0  0  0  0
  1  2  1  0
  2  3  1  0
  3  4  2  0
  3  5  1  0
  5  6  1  0
  5  7  1  0
  7  8  2  0
  8  9  1  0
  9 10  2  0
 10 11  1  0
 11 12  2  0
 12 13  1  0
 13 14  2  0
 14 15  1  0
  8 16  1  0
 16 17  2  0
 17 18  1  0
 18 19  1  0
 18 20  2  0
 20 21  1  0
 21 22  2  0
 22  2  1  0
 14  9  1  0
 22 16  1  0
  1 23  1  0
  1 24  1  0
  1 25  1  0
  5 26  1  0
  6 27  1  0
 10 28  1  0
 11 29  1  0
 12 30  1  0
 13 31  1  0
 17 32  1  0
 20 33  1  0
 21 34  1  0
M  END
$$$$
