triazolam
     RDKit          3D

 35 38  0  0  0  0  0  0  0  0999 V2000
   -3.8969   -0.0450    1.5689 C   0  0  0  0  0  0  0  0  0  0  0  0
   -3.2417   -1.0262    0.6718 C   0  0  0  0  0  0  0  0  0  0  0  0
   -3.5859   -2.2956    0.5933 N   0  0  0  0  0  0  0  0  0  0  0  0
   -2.6841   -2.9364   -0.2072 N   0  0  0  0  0  0  0  0  0  0  0  0
   -1.8012   -2.0499   -0.6128 C   0  0  0  0  0  0  0  0  0  0  0  0
   -2.1254   -0.8039   -0.1221 N   0  0  0  0  0  0  0  0  0  0  0  0
   -1.4666    0.4112   -0.4483 C   0  0  0  0  0  0  0  0  0  0  0  0
   -2.2254    1.5907   -0.5507 C   0  0  0  0  0  0  0  0  0  0  0  0
   -1.6223    2.7953   -0.9192 C   0  0  0  0  0  0  0  0  0  0  0  0
   -0.2619    2.8302   -1.1972 C   0  0  0  0  0  0  0  0  0  0  0  0
    0.4778    4.3118   -1.6598 Cl  0  0  0  0  0  0  0  0  0  0  0  0
    0.5057    1.6722   -1.1043 C   0  0  0  0  0  0  0  0  0  0  0  0
   -0.0834    0.4521   -0.7239 C   0  0  0  0  0  0  0  0  0  0  0  0
    0.8327   -0.7204   -0.5415 C   0  0  0  0  0  0  0  0  0  0  0  0
    2.1353   -0.4754    0.1320 C   0  0  0  0  0  0  0  0  0  0  0  0
    2.1187   -0.1977    1.5054 C   0  0  0  0  0  0  0  0  0  0  0  0
    3.3189    0.0234    2.1813 C   0  0  0  0  0  0  0  0  0  0  0  0
    4.5299   -0.0363    1.4911 C   0  0  0  0  0  0  0  0  0  0  0  0
    4.5455   -0.3180    0.1226 C   0  0  0  0  0  0  0  0  0  0  0  0
    3.3485   -0.5416   -0.5625 C   0  0  0  0  0  0  0  0  0  0  0  0
    3.4268   -0.8302   -2.2628 Cl  0  0  0  0  0  0  0  0  0  0  0  0
    0.5878   -1.9384   -0.8794 N   0  0  0  0  0  0  0  0  0  0  0  0
   -0.6676   -2.2758   -1.5337 C   0  0  0  0  0  0  0  0  0  0  0  0
   -3.1788    0.6590    1.9992 H   0  0  0  0  0  0  0  0  0  0  0  0
   -4.3779   -0.5657    2.4039 H   0  0  0  0  0  0  0  0  0  0  0  0
   -4.6753    0.5084    1.0362 H   0  0  0  0  0  0  0  0  0  0  0  0
   -3.3029    1.5968   -0.4092 H   0  0  0  0  0  0  0  0  0  0  0  0
   -2.2251    3.6967   -1.0071 H   0  0  0  0  0  0  0  0  0  0  0  0
    1.5664    1.7323   -1.3369 H   0  0  0  0  0  0  0  0  0  0  0  0
    1.1810   -0.1735    2.0548 H   0  0  0  0  0  0  0  0  0  0  0  0
    3.3123    0.2311    3.2491 H   0  0  0  0  0  0  0  0  0  0  0  0
    5.4655    0.1312    2.0203 H   0  0  0  0  0  0  0  0  0  0  0  0
    5.4962   -0.3614   -0.4036 H   0  0  0  0  0  0  0  0  0  0  0  0
   -0.7923   -1.7162   -2.4686 H   0  0  0  0  0  0  0  0  0  0  0  0
   -0.6340   -3.3346   -1.8139 H   0  0  0  0  0  0  0  0  0  0  0  0
  1  2  1  0
  2  3  2  0
  3  4  1  0
  4  5  2  0
  5  6  1  0
  6  7  1  0
  7  8  2  0
  8  9  1  0
  9 10  2  0
 10 11  1  0
 10 12  1  0
 12 13  2  0
 13 14  1  0
 14 15  1  0
 15 16  2  0
 16 17  1  0
 17 18  2  0
 18 19  1  0
 19 20  2  0
 20 21  1  0
 14 22  2  0
 22 23  1  0
  6  2  1  0
 13  7  1  0
 20 15  1  0
 23  5  1  0
  1 24  1  0
  1 25  1  0
  1 26  1  0
  8 27  1  0
  9 28  1  0
 12 29  1  0
 16 30  1  0
 17 31  1  0
 18 32  1  0
 19 33  1  0
 23 34  1  0
 23 35  1  0
M  END
$$$$
