alprazolam
     RDKit          3D

 35 38  0  0  0  0  0  0  0  0999 V2000
   -4.1370    0.5498    0.4530 C   0  0  0  0  0  0  0  0  0  0  0  0
   -3.3606   -0.7122    0.4359 C   0  0  0  0  0  0  0  0  0  0  0  0
   -3.7503   -1.8279    1.0189 N   0  0  0  0  0  0  0  0  0  0  0  0
   -2.7340   -2.7371    0.9305 N   0  0  0  0  0  0  0  0  0  0  0  0
   -1.7357   -2.1671    0.2912 C   0  0  0  0  0  0  0  0  0  0  0  0
   -2.0889   -0.8896   -0.0873 N   0  0  0  0  0  0  0  0  0  0  0  0
   -1.3115   -0.0339   -0.9099 C   0  0  0  0  0  0  0  0  0  0  0  0
   -1.9587    0.7983   -1.8391 C   0  0  0  0  0  0  0  0  0  0  0  0
   -1.2161    1.5808   -2.7274 C   0  0  0  0  0  0  0  0  0  0  0  0
    0.1728    1.5279   -2.7040 C   0  0  0  0  0  0  0  0  0  0  0  0
    1.0827    2.4781   -3.8108 Cl  0  0  0  0  0  0  0  0  0  0  0  0
    0.8305    0.7116   -1.7883 C   0  0  0  0  0  0  0  0  0  0  0  0
    0.0972   -0.0606   -0.8694 C   0  0  0  0  0  0  0  0  0  0  0  0
    0.8814   -0.8179    0.1605 C   0  0  0  0  0  0  0  0  0  0  0  0
    2.0088   -0.1152    0.8568 C   0  0  0  0  0  0  0  0  0  0  0  0
    3.1627   -0.8388    1.1810 C   0  0  0  0  0  0  0  0  0  0  0  0
    4.2255   -0.2083    1.8297 C   0  0  0  0  0  0  0  0  0  0  0  0
    4.1350    1.1420    2.1660 C   0  0  0  0  0  0  0  0  0  0  0  0
    2.9797    1.8625    1.8630 C   0  0  0  0  0  0  0  0  0  0  0  0
    1.9133    1.2361    1.2142 C   0  0  0  0  0  0  0  0  0  0  0  0
    0.6614   -2.0416    0.5031 N   0  0  0  0  0  0  0  0  0  0  0  0
   -0.4444   -2.7835   -0.0863 C   0  0  0  0  0  0  0  0  0  0  0  0
   -3.4893    1.4271    0.5384 H   0  0  0  0  0  0  0  0  0  0  0  0
   -4.8123    0.5614    1.3152 H   0  0  0  0  0  0  0  0  0  0  0  0
   -4.7522    0.6385   -0.4469 H   0  0  0  0  0  0  0  0  0  0  0  0
   -3.0401    0.8133   -1.9448 H   0  0  0  0  0  0  0  0  0  0  0  0
   -1.7298    2.2089   -3.4522 H   0  0  0  0  0  0  0  0  0  0  0  0
    1.9187    0.6846   -1.7892 H   0  0  0  0  0  0  0  0  0  0  0  0
    3.2363   -1.8951    0.9317 H   0  0  0  0  0  0  0  0  0  0  0  0
    5.1202   -0.7734    2.0791 H   0  0  0  0  0  0  0  0  0  0  0  0
    4.9620    1.6301    2.6762 H   0  0  0  0  0  0  0  0  0  0  0  0
    2.9069    2.9108    2.1424 H   0  0  0  0  0  0  0  0  0  0  0  0
    1.0134    1.8100    1.0129 H   0  0  0  0  0  0  0  0  0  0  0  0
   -0.4097   -3.8098    0.2963 H   0  0  0  0  0  0  0  0  0  0  0  0
   -0.3380   -2.8597   -1.1751 H   0  0  0  0  0  0  0  0  0  0  0  0
  1  2  1  0
  2  3  2  0
  3  4  1  0
  4  5  2  0
  5  6  1  0
  6  7  1  0
  7  8  2  0
  8  9  1  0
  9 10  2  0
 10 11  1  0
 10 12  1  0
 12 13  2  0
 13 14  1  0
 14 15  1  0
 15 16  2  0
 16 17  1  0
 17 18  2  0
 18 19  1  0
 19 20  2  0
 14 21  2  0
 21 22  1  0
  6  2  1  0
 13  7  1  0
 20 15  1  0
 22  5  1  0
  1 23  1  0
  1 24  1  0
  1 25  1  0
  8 26  1  0
  9 27  1  0
 12 28  1  0
 16 29  1  0
 17 30  1  0
 18 31  1  0
 19 32  1  0
 20 33  1  0
 22 34  1  0
 22 35  1  0
M  END
$$$$
