clonazepam
     RDKit          3D

 32 34  0  0  0  0  0  0  0  0999 V2000
   -1.3350    4.1229   -1.6972 O   0  0  0  0  0  0  0  0  0  0  0  0
   -1.1755    3.1458   -0.9647 C   0  0  0  0  0  0  0  0  0  0  0  0
   -0.2444    3.1569    0.2304 C   0  0  0  0  0  0  0  0  0  0  0  0
    0.8373    2.2009    0.0426 N   0  0  0  0  0  0  0  0  0  0  0  0
    0.5810    0.9399    0.0665 C   0  0  0  0  0  0  0  0  0  0  0  0
    1.7466    0.0356   -0.1143 C   0  0  0  0  0  0  0  0  0  0  0  0
    1.8945   -0.5996   -1.3544 C   0  0  0  0  0  0  0  0  0  0  0  0
    2.9800   -1.4484   -1.5711 C   0  0  0  0  0  0  0  0  0  0  0  0
    3.9150   -1.6586   -0.5570 C   0  0  0  0  0  0  0  0  0  0  0  0
    3.7693   -1.0195    0.6771 C   0  0  0  0  0  0  0  0  0  0  0  0
    2.6861   -0.1667    0.9029 C   0  0  0  0  0  0  0  0  0  0  0  0
    2.5284    0.5554    2.4630 Cl  0  0  0  0  0  0  0  0  0  0  0  0
   -0.7692    0.3101    0.2002 C   0  0  0  0  0  0  0  0  0  0  0  0
   -0.8665   -0.9028    0.9081 C   0  0  0  0  0  0  0  0  0  0  0  0
   -2.0685   -1.6222    0.9103 C   0  0  0  0  0  0  0  0  0  0  0  0
   -2.1582   -2.8919    1.6436 N   0  0  0  0  0  0  0  0  0  0  0  0
   -3.2578   -3.4610    1.6744 O   0  0  0  0  0  0  0  0  0  0  0  0
   -1.1275   -3.3177    2.1822 O   0  0  0  0  0  0  0  0  0  0  0  0
   -3.1757   -1.1531    0.2003 C   0  0  0  0  0  0  0  0  0  0  0  0
   -3.0828    0.0568   -0.4908 C   0  0  0  0  0  0  0  0  0  0  0  0
   -1.8998    0.8140   -0.4696 C   0  0  0  0  0  0  0  0  0  0  0  0
   -1.9496    2.0336   -1.1596 N   0  0  0  0  0  0  0  0  0  0  0  0
    0.1868    4.1601    0.3172 H   0  0  0  0  0  0  0  0  0  0  0  0
   -0.8048    2.9707    1.1538 H   0  0  0  0  0  0  0  0  0  0  0  0
    1.1819   -0.4210   -2.1558 H   0  0  0  0  0  0  0  0  0  0  0  0
    3.1043   -1.9387   -2.5342 H   0  0  0  0  0  0  0  0  0  0  0  0
    4.7632   -2.3180   -0.7283 H   0  0  0  0  0  0  0  0  0  0  0  0
    4.5049   -1.1924    1.4593 H   0  0  0  0  0  0  0  0  0  0  0  0
   -0.0066   -1.2912    1.4505 H   0  0  0  0  0  0  0  0  0  0  0  0
   -4.1136   -1.7059    0.1802 H   0  0  0  0  0  0  0  0  0  0  0  0
   -3.9619    0.4189   -1.0224 H   0  0  0  0  0  0  0  0  0  0  0  0
   -2.6818    2.1871   -1.8429 H   0  0  0  0  0  0  0  0  0  0  0  0
  1  2  2  0
  2  3  1  0
  3  4  1  0
  4  5  2  0
  5  6  1  0
  6  7  2  0
  7  8  1  0
  8  9  2  0
  9 10  1  0
 10 11  2  0
 11 12  1  0
  5 13  1  0
 13 14  2  0
 14 15  1  0
 15 16  1  0
 16 17  2  0
 16 18  1  0
 15 19  2  0
 19 20  1  0
 20 21  2  0
 21 22  1  0
 22  2  1  0
 11  6  1  0
 21 13  1  0
  3 23  1  0
  3 24  1  0
  7 25  1  0
  8 26  1  0
  9 27  1  0
 10 28  1  0
 14 29  1  0
 19 30  1  0
 20 31  1  0
 22 32  1  0
M  CHG  2  16   1  18  -1
M  END
$$$$
