diazepam
     RDKit          3D

 33 35  0  0  0  0  0  0  0  0999 V2000
   -3.4680   -0.2528   -1.4353 C   0  0  0  0  0  0  0  0  0  0  0  0
   -2.4335   -0.5652   -0.4572 N   0  0  0  0  0  0  0  0  0  0  0  0
   -2.2579   -1.9158   -0.1333 C   0  0  0  0  0  0  0  0  0  0  0  0
   -2.8905   -2.8173   -0.6911 O   0  0  0  0  0  0  0  0  0  0  0  0
   -1.3096   -2.2346    1.0143 C   0  0  0  0  0  0  0  0  0  0  0  0
    0.0632   -2.0128    0.5732 N   0  0  0  0  0  0  0  0  0  0  0  0
    0.4460   -0.7959    0.3793 C   0  0  0  0  0  0  0  0  0  0  0  0
    1.8376   -0.5909   -0.1378 C   0  0  0  0  0  0  0  0  0  0  0  0
    2.8518   -1.4622    0.2774 C   0  0  0  0  0  0  0  0  0  0  0  0
    4.1559   -1.2927   -0.1899 C   0  0  0  0  0  0  0  0  0  0  0  0
    4.4489   -0.2605   -1.0805 C   0  0  0  0  0  0  0  0  0  0  0  0
    3.4383    0.5984   -1.5127 C   0  0  0  0  0  0  0  0  0  0  0  0
    2.1318    0.4325   -1.0481 C   0  0  0  0  0  0  0  0  0  0  0  0
   -0.4053    0.4019    0.6443 C   0  0  0  0  0  0  0  0  0  0  0  0
    0.1978    1.4688    1.3376 C   0  0  0  0  0  0  0  0  0  0  0  0
   -0.4902    2.6623    1.5203 C   0  0  0  0  0  0  0  0  0  0  0  0
    0.2589    3.9659    2.3530 Cl  0  0  0  0  0  0  0  0  0  0  0  0
   -1.7767    2.8081    1.0206 C   0  0  0  0  0  0  0  0  0  0  0  0
   -2.3892    1.7411    0.3550 C   0  0  0  0  0  0  0  0  0  0  0  0
   -1.7315    0.5080    0.1774 C   0  0  0  0  0  0  0  0  0  0  0  0
   -4.4039   -0.0412   -0.9087 H   0  0  0  0  0  0  0  0  0  0  0  0
   -3.1692    0.6052   -2.0460 H   0  0  0  0  0  0  0  0  0  0  0  0
   -3.6418   -1.0945   -2.1127 H   0  0  0  0  0  0  0  0  0  0  0  0
   -1.5689   -1.6680    1.9157 H   0  0  0  0  0  0  0  0  0  0  0  0
   -1.4264   -3.2940    1.2683 H   0  0  0  0  0  0  0  0  0  0  0  0
    2.6281   -2.2759    0.9640 H   0  0  0  0  0  0  0  0  0  0  0  0
    4.9405   -1.9709    0.1360 H   0  0  0  0  0  0  0  0  0  0  0  0
    5.4645   -0.1330   -1.4474 H   0  0  0  0  0  0  0  0  0  0  0  0
    3.6674    1.3915   -2.2202 H   0  0  0  0  0  0  0  0  0  0  0  0
    1.3552    1.0954   -1.4191 H   0  0  0  0  0  0  0  0  0  0  0  0
    1.2092    1.3721    1.7271 H   0  0  0  0  0  0  0  0  0  0  0  0
   -2.3194    3.7406    1.1575 H   0  0  0  0  0  0  0  0  0  0  0  0
   -3.4133    1.8865    0.0190 H   0  0  0  0  0  0  0  0  0  0  0  0
  1  2  1  0
  2  3  1  0
  3  4  2  0
  3  5  1  0
  5  6  1  0
  6  7  2  0
  7  8  1  0
  8  9  2  0
  9 10  1  0
 10 11  2  0
 11 12  1  0
 12 13  2  0
  7 14  1  0
 14 15  2  0
 15 16  1  0
 16 17  1  0
 16 18  2  0
 18 19  1  0
 19 20  2  0
 20  2  1  0
 13  8  1  0
 20 14  1  0
  1 21  1  0
  1 22  1  0
  1 23  1  0
  5 24  1  0
  5 25  1  0
  9 26  1  0
 10 27  1  0
 11 28  1  0
 12 29  1  0
 13 30  1  0
 15 31  1  0
 18 32  1  0
 19 33  1  0
M  END
$$$$
