lorazepam
     RDKit          3D

 31 33  0  0  0  0  0  0  0  0999 V2000
   -2.8757   -2.3850   -2.2686 O   0  0  0  0  0  0  0  0  0  0  0  0
   -2.2740   -1.8197   -1.3516 C   0  0  0  0  0  0  0  0  0  0  0  0
   -2.6218   -0.5344   -1.0243 N   0  0  0  0  0  0  0  0  0  0  0  0
   -2.0604    0.2764   -0.0266 C   0  0  0  0  0  0  0  0  0  0  0  0
   -2.8904    1.2909    0.4750 C   0  0  0  0  0  0  0  0  0  0  0  0
   -2.4582    2.1213    1.5106 C   0  0  0  0  0  0  0  0  0  0  0  0
   -1.1857    1.9509    2.0430 C   0  0  0  0  0  0  0  0  0  0  0  0
   -0.6531    2.9672    3.3241 Cl  0  0  0  0  0  0  0  0  0  0  0  0
   -0.3308    0.9797    1.5284 C   0  0  0  0  0  0  0  0  0  0  0  0
   -0.7530    0.1497    0.4747 C   0  0  0  0  0  0  0  0  0  0  0  0
    0.2639   -0.7280   -0.1787 C   0  0  0  0  0  0  0  0  0  0  0  0
    1.6263   -0.1641   -0.3738 C   0  0  0  0  0  0  0  0  0  0  0  0
    1.7806    0.8578   -1.3209 C   0  0  0  0  0  0  0  0  0  0  0  0
    3.0424    1.4075   -1.5484 C   0  0  0  0  0  0  0  0  0  0  0  0
    4.1464    0.9373   -0.8371 C   0  0  0  0  0  0  0  0  0  0  0  0
    3.9924   -0.0843    0.1037 C   0  0  0  0  0  0  0  0  0  0  0  0
    2.7323   -0.6414    0.3380 C   0  0  0  0  0  0  0  0  0  0  0  0
    2.5991   -1.8631    1.5498 Cl  0  0  0  0  0  0  0  0  0  0  0  0
    0.0699   -1.9101   -0.6491 N   0  0  0  0  0  0  0  0  0  0  0  0
   -1.2280   -2.5451   -0.4749 C   0  0  0  0  0  0  0  0  0  0  0  0
   -1.6657   -2.6943    0.8686 O   0  0  0  0  0  0  0  0  0  0  0  0
   -3.4468   -0.2129   -1.5145 H   0  0  0  0  0  0  0  0  0  0  0  0
   -3.8995    1.4239    0.0901 H   0  0  0  0  0  0  0  0  0  0  0  0
   -3.1226    2.8873    1.9029 H   0  0  0  0  0  0  0  0  0  0  0  0
    0.6662    0.8800    1.9499 H   0  0  0  0  0  0  0  0  0  0  0  0
    0.9275    1.2148   -1.8926 H   0  0  0  0  0  0  0  0  0  0  0  0
    3.1674    2.1966   -2.2865 H   0  0  0  0  0  0  0  0  0  0  0  0
    5.1308    1.3638   -1.0173 H   0  0  0  0  0  0  0  0  0  0  0  0
    4.8607   -0.4411    0.6527 H   0  0  0  0  0  0  0  0  0  0  0  0
   -1.1339   -3.5591   -0.8818 H   0  0  0  0  0  0  0  0  0  0  0  0
   -2.4063   -3.3224    0.8351 H   0  0  0  0  0  0  0  0  0  0  0  0
  1  2  2  0
  2  3  1  0
  3  4  1  0
  4  5  2  0
  5  6  1  0
  6  7  2  0
  7  8  1  0
  7  9  1  0
  9 10  2  0
 10 11  1  0
 11 12  1  0
 12 13  2  0
 13 14  1  0
 14 15  2  0
 15 16  1  0
 16 17  2  0
 17 18  1  0
 11 19  2  0
 19 20  1  0
 20 21  1  0
 20  2  1  0
 10  4  1  0
 17 12  1  0
  3 22  1  0
  5 23  1  0
  6 24  1  0
  9 25  1  0
 13 26  1  0
 14 27  1  0
 15 28  1  0
 16 29  1  0
 20 30  1  0
 21 31  1  0
M  END
$$$$
