midazolam
     RDKit          3D

 36 39  0  0  0  0  0  0  0  0999 V2000
   -3.7934    0.4308   -1.4651 C   0  0  0  0  0  0  0  0  0  0  0  0
   -3.1751   -0.7353   -0.7799 C   0  0  0  0  0  0  0  0  0  0  0  0
   -3.5724   -1.9790   -0.9752 N   0  0  0  0  0  0  0  0  0  0  0  0
   -2.6752   -2.7662   -0.3172 C   0  0  0  0  0  0  0  0  0  0  0  0
   -1.7275   -2.0004    0.3171 C   0  0  0  0  0  0  0  0  0  0  0  0
   -2.0555   -0.6876    0.0477 N   0  0  0  0  0  0  0  0  0  0  0  0
   -1.3760    0.4416    0.5818 C   0  0  0  0  0  0  0  0  0  0  0  0
   -2.1134    1.5863    0.9280 C   0  0  0  0  0  0  0  0  0  0  0  0
   -1.4806    2.6904    1.5044 C   0  0  0  0  0  0  0  0  0  0  0  0
   -0.1128    2.6549    1.7489 C   0  0  0  0  0  0  0  0  0  0  0  0
    0.6614    4.0115    2.4683 Cl  0  0  0  0  0  0  0  0  0  0  0  0
    0.6338    1.5277    1.4166 C   0  0  0  0  0  0  0  0  0  0  0  0
    0.0132    0.4135    0.8237 C   0  0  0  0  0  0  0  0  0  0  0  0
    0.9013   -0.7180    0.4016 C   0  0  0  0  0  0  0  0  0  0  0  0
    2.1775   -0.3711   -0.2724 C   0  0  0  0  0  0  0  0  0  0  0  0
    2.1557    0.3362   -1.4798 C   0  0  0  0  0  0  0  0  0  0  0  0
    3.3593    0.6543   -2.1129 C   0  0  0  0  0  0  0  0  0  0  0  0
    4.5753    0.2666   -1.5444 C   0  0  0  0  0  0  0  0  0  0  0  0
    4.5917   -0.4409   -0.3411 C   0  0  0  0  0  0  0  0  0  0  0  0
    3.3925   -0.7598    0.2899 C   0  0  0  0  0  0  0  0  0  0  0  0
    3.4348   -1.4026    1.4657 F   0  0  0  0  0  0  0  0  0  0  0  0
    0.6446   -1.9730    0.5447 N   0  0  0  0  0  0  0  0  0  0  0  0
   -0.5938   -2.3818    1.1808 C   0  0  0  0  0  0  0  0  0  0  0  0
   -3.0494    1.1805   -1.7492 H   0  0  0  0  0  0  0  0  0  0  0  0
   -4.5560    0.8926   -0.8319 H   0  0  0  0  0  0  0  0  0  0  0  0
   -4.2872    0.1022   -2.3860 H   0  0  0  0  0  0  0  0  0  0  0  0
   -2.7584   -3.8456   -0.3263 H   0  0  0  0  0  0  0  0  0  0  0  0
   -3.1936    1.6274    0.8184 H   0  0  0  0  0  0  0  0  0  0  0  0
   -2.0661    3.5649    1.7795 H   0  0  0  0  0  0  0  0  0  0  0  0
    1.7009    1.5224    1.6277 H   0  0  0  0  0  0  0  0  0  0  0  0
    1.2135    0.6228   -1.9391 H   0  0  0  0  0  0  0  0  0  0  0  0
    3.3506    1.1971   -3.0557 H   0  0  0  0  0  0  0  0  0  0  0  0
    5.5109    0.5127   -2.0417 H   0  0  0  0  0  0  0  0  0  0  0  0
    5.5312   -0.7451    0.1103 H   0  0  0  0  0  0  0  0  0  0  0  0
   -0.6895   -1.9599    2.1888 H   0  0  0  0  0  0  0  0  0  0  0  0
   -0.5721   -3.4700    1.3094 H   0  0  0  0  0  0  0  0  0  0  0  0
  1  2  1  0
  2  3  2  0
  3  4  1  0
  4  5  2  0
  5  6  1  0
  6  7  1  0
  7  8  2  0
  8  9  1  0
  9 10  2  0
 10 11  1  0
 10 12  1  0
 12 13  2  0
 13 14  1  0
 14 15  1  0
 15 16  2  0
 16 17  1  0
 17 18  2  0
 18 19  1  0
 19 20  2  0
 20 21  1  0
 14 22  2  0
 22 23  1  0
  6  2  1  0
 13  7  1  0
 20 15  1  0
 23  5  1  0
  1 24  1  0
  1 25  1  0
  1 26  1  0
  4 27  1  0
  8 28  1  0
  9 29  1  0
 12 30  1  0
 16 31  1  0
 17 32  1  0
 18 33  1  0
 19 34  1  0
 23 35  1  0
 23 36  1  0
M  END
$$$$
