temazepam
     RDKit          3D

 34 36  0  0  0  0  0  0  0  0999 V2000
   -3.3946    0.0593    1.6963 C   0  0  0  0  0  0  0  0  0  0  0  0
   -2.3834   -0.3607    0.7342 N   0  0  0  0  0  0  0  0  0  0  0  0
   -2.2024   -1.7399    0.5626 C   0  0  0  0  0  0  0  0  0  0  0  0
   -2.7671   -2.5752    1.2781 O   0  0  0  0  0  0  0  0  0  0  0  0
   -1.2928   -2.1891   -0.6173 C   0  0  0  0  0  0  0  0  0  0  0  0
   -1.5170   -3.5572   -0.9198 O   0  0  0  0  0  0  0  0  0  0  0  0
    0.0794   -1.9352   -0.2067 N   0  0  0  0  0  0  0  0  0  0  0  0
    0.4716   -0.7076   -0.1376 C   0  0  0  0  0  0  0  0  0  0  0  0
    1.8712   -0.4646    0.3388 C   0  0  0  0  0  0  0  0  0  0  0  0
    2.8738   -1.3788   -0.0066 C   0  0  0  0  0  0  0  0  0  0  0  0
    4.1852   -1.1759    0.4253 C   0  0  0  0  0  0  0  0  0  0  0  0
    4.4970   -0.0668    1.2110 C   0  0  0  0  0  0  0  0  0  0  0  0
    3.4981    0.8369    1.5735 C   0  0  0  0  0  0  0  0  0  0  0  0
    2.1842    0.6382    1.1439 C   0  0  0  0  0  0  0  0  0  0  0  0
   -0.3746    0.4681   -0.5050 C   0  0  0  0  0  0  0  0  0  0  0  0
    0.2231    1.4524   -1.3145 C   0  0  0  0  0  0  0  0  0  0  0  0
   -0.4602    2.6269   -1.6061 C   0  0  0  0  0  0  0  0  0  0  0  0
    0.2823    3.8320   -2.5807 Cl  0  0  0  0  0  0  0  0  0  0  0  0
   -1.7365    2.8343   -1.1012 C   0  0  0  0  0  0  0  0  0  0  0  0
   -2.3442    1.8475   -0.3178 C   0  0  0  0  0  0  0  0  0  0  0  0
   -1.6915    0.6343   -0.0263 C   0  0  0  0  0  0  0  0  0  0  0  0
   -3.5681   -0.7090    2.4557 H   0  0  0  0  0  0  0  0  0  0  0  0
   -3.0727    0.9687    2.2138 H   0  0  0  0  0  0  0  0  0  0  0  0
   -4.3374    0.2330    1.1682 H   0  0  0  0  0  0  0  0  0  0  0  0
   -1.5640   -1.6408   -1.5260 H   0  0  0  0  0  0  0  0  0  0  0  0
   -1.3278   -4.0096   -0.0783 H   0  0  0  0  0  0  0  0  0  0  0  0
    2.6367   -2.2509   -0.6126 H   0  0  0  0  0  0  0  0  0  0  0  0
    4.9613   -1.8870    0.1532 H   0  0  0  0  0  0  0  0  0  0  0  0
    5.5186    0.0872    1.5502 H   0  0  0  0  0  0  0  0  0  0  0  0
    3.7428    1.6918    2.1992 H   0  0  0  0  0  0  0  0  0  0  0  0
    1.4180    1.3404    1.4602 H   0  0  0  0  0  0  0  0  0  0  0  0
    1.2263    1.3075   -1.7109 H   0  0  0  0  0  0  0  0  0  0  0  0
   -2.2750    3.7527   -1.3240 H   0  0  0  0  0  0  0  0  0  0  0  0
   -3.3604    2.0368    0.0208 H   0  0  0  0  0  0  0  0  0  0  0  0
  1  2  1  0
  2  3  1  0
  3  4  2  0
  3  5  1  0
  5  6  1  0
  5  7  1  0
  7  8  2  0
  8  9  1  0
  9 10  2  0
 10 11  1  0
 11 12  2  0
 12 13  1  0
 13 14  2  0
  8 15  1  0
 15 16  2  0
 16 17  1  0
 17 18  1  0
 17 19  2  0
 19 20  1  0
 20 21  2  0
 21  2  1  0
 14  9  1  0
 21 15  1  0
  1 22  1  0
  1 23  1  0
  1 24  1  0
  5 25  1  0
  6 26  1  0
 10 27  1  0
 11 28  1  0
 12 29  1  0
 13 30  1  0
 14 31  1  0
 16 32  1  0
 19 33  1  0
 20 34  1  0
M  END
$$$$
