zaleplon
     RDKit          3D

 38 40  0  0  0  0  0  0  0  0999 V2000
   -2.2743    2.0711   -0.8096 C   0  0  0  0  0  0  0  0  0  0  0  0
   -2.7233    0.6209   -0.9518 C   0  0  0  0  0  0  0  0  0  0  0  0
   -2.6534   -0.1190    0.3220 N   0  0  0  0  0  0  0  0  0  0  0  0
   -3.7211   -0.0608    1.2413 C   0  0  0  0  0  0  0  0  0  0  0  0
   -5.0290    0.5132    0.7405 C   0  0  0  0  0  0  0  0  0  0  0  0
   -3.6755   -0.4321    2.4157 O   0  0  0  0  0  0  0  0  0  0  0  0
   -1.4259   -0.8357    0.6272 C   0  0  0  0  0  0  0  0  0  0  0  0
   -1.3678   -1.8102    1.6344 C   0  0  0  0  0  0  0  0  0  0  0  0
   -0.1856   -2.4983    1.9300 C   0  0  0  0  0  0  0  0  0  0  0  0
    0.9752   -2.2394    1.2109 C   0  0  0  0  0  0  0  0  0  0  0  0
    0.9604   -1.2971    0.1793 C   0  0  0  0  0  0  0  0  0  0  0  0
    2.1825   -1.0241   -0.6086 C   0  0  0  0  0  0  0  0  0  0  0  0
    2.8126   -2.0515   -1.2105 C   0  0  0  0  0  0  0  0  0  0  0  0
    4.0261   -1.7092   -1.9947 C   0  0  0  0  0  0  0  0  0  0  0  0
    4.5258   -0.5227   -2.1548 N   0  0  0  0  0  0  0  0  0  0  0  0
    3.8585    0.4985   -1.5342 C   0  0  0  0  0  0  0  0  0  0  0  0
    4.0955    1.8537   -1.4805 C   0  0  0  0  0  0  0  0  0  0  0  0
    5.1644    2.5588   -2.0979 C   0  0  0  0  0  0  0  0  0  0  0  0
    6.0185    3.1744   -2.5870 N   0  0  0  0  0  0  0  0  0  0  0  0
    3.0655    2.3837   -0.6966 C   0  0  0  0  0  0  0  0  0  0  0  0
    2.2119    1.4529   -0.2715 N   0  0  0  0  0  0  0  0  0  0  0  0
    2.6981    0.2786   -0.7695 N   0  0  0  0  0  0  0  0  0  0  0  0
   -0.2390   -0.6113   -0.0987 C   0  0  0  0  0  0  0  0  0  0  0  0
   -1.2400    2.1462   -0.4619 H   0  0  0  0  0  0  0  0  0  0  0  0
   -2.3459    2.5835   -1.7741 H   0  0  0  0  0  0  0  0  0  0  0  0
   -2.8975    2.6124   -0.0913 H   0  0  0  0  0  0  0  0  0  0  0  0
   -3.7489    0.6138   -1.3313 H   0  0  0  0  0  0  0  0  0  0  0  0
   -2.1493    0.1009   -1.7264 H   0  0  0  0  0  0  0  0  0  0  0  0
   -5.7746    0.4639    1.5409 H   0  0  0  0  0  0  0  0  0  0  0  0
   -5.4046   -0.0778   -0.0990 H   0  0  0  0  0  0  0  0  0  0  0  0
   -4.9141    1.5609    0.4561 H   0  0  0  0  0  0  0  0  0  0  0  0
   -2.2435   -2.0856    2.2147 H   0  0  0  0  0  0  0  0  0  0  0  0
   -0.1809   -3.2359    2.7291 H   0  0  0  0  0  0  0  0  0  0  0  0
    1.8854   -2.7741    1.4713 H   0  0  0  0  0  0  0  0  0  0  0  0
    2.4972   -3.0854   -1.1711 H   0  0  0  0  0  0  0  0  0  0  0  0
    4.5283   -2.5656   -2.4757 H   0  0  0  0  0  0  0  0  0  0  0  0
    2.8937    3.4157   -0.4150 H   0  0  0  0  0  0  0  0  0  0  0  0
   -0.2053    0.1327   -0.8881 H   0  0  0  0  0  0  0  0  0  0  0  0
  1  2  1  0
  2  3  1  0
  3  4  1  0
  4  5  1  0
  4  6  2  0
  3  7  1  0
  7  8  2  0
  8  9  1  0
  9 10  2  0
 10 11  1  0
 11 12  1  0
 12 13  2  0
 13 14  1  0
 14 15  2  0
 15 16  1  0
 16 17  2  0
 17 18  1  0
 18 19  3  0
 17 20  1  0
 20 21  2  0
 21 22  1  0
 11 23  2  0
 23  7  1  0
 22 12  1  0
 22 16  1  0
  1 24  1  0
  1 25  1  0
  1 26  1  0
  2 27  1  0
  2 28  1  0
  5 29  1  0
  5 30  1  0
  5 31  1  0
  8 32  1  0
  9 33  1  0
 10 34  1  0
 13 35  1  0
 14 36  1  0
 20 37  1  0
 23 38  1  0
M  END
$$$$
