zolpidem
     RDKit          3D

 44 46  0  0  0  0  0  0  0  0999 V2000
    1.9971   -3.9311   -4.2428 C   0  0  0  0  0  0  0  0  0  0  0  0
    1.7730   -2.8079   -3.2741 C   0  0  0  0  0  0  0  0  0  0  0  0
    2.3241   -2.8599   -1.9889 C   0  0  0  0  0  0  0  0  0  0  0  0
    2.0933   -1.8251   -1.0785 C   0  0  0  0  0  0  0  0  0  0  0  0
    1.2890   -0.7348   -1.4295 C   0  0  0  0  0  0  0  0  0  0  0  0
    1.0604    0.3213   -0.4608 C   0  0  0  0  0  0  0  0  0  0  0  0
    2.0895    0.8478    0.2789 N   0  0  0  0  0  0  0  0  0  0  0  0
    1.5460    1.7892    1.0152 C   0  0  0  0  0  0  0  0  0  0  0  0
    2.1302    2.6907    1.9475 C   0  0  0  0  0  0  0  0  0  0  0  0
    1.3632    3.6085    2.5653 C   0  0  0  0  0  0  0  0  0  0  0  0
   -0.0696    3.7087    2.3039 C   0  0  0  0  0  0  0  0  0  0  0  0
   -0.8443    4.7649    3.0273 C   0  0  0  0  0  0  0  0  0  0  0  0
   -0.6217    2.8456    1.4290 C   0  0  0  0  0  0  0  0  0  0  0  0
    0.1739    1.8857    0.7976 N   0  0  0  0  0  0  0  0  0  0  0  0
   -0.1569    0.8901   -0.1122 C   0  0  0  0  0  0  0  0  0  0  0  0
   -1.5602    0.5949   -0.5429 C   0  0  0  0  0  0  0  0  0  0  0  0
   -2.4267    0.1360    0.6289 C   0  0  0  0  0  0  0  0  0  0  0  0
   -3.2442    0.9261    1.1132 O   0  0  0  0  0  0  0  0  0  0  0  0
   -2.2757   -1.1528    1.1224 N   0  0  0  0  0  0  0  0  0  0  0  0
   -1.3656   -2.1527    0.5858 C   0  0  0  0  0  0  0  0  0  0  0  0
   -2.9936   -1.5344    2.3281 C   0  0  0  0  0  0  0  0  0  0  0  0
    0.7451   -0.6786   -2.7172 C   0  0  0  0  0  0  0  0  0  0  0  0
    0.9757   -1.7135   -3.6288 C   0  0  0  0  0  0  0  0  0  0  0  0
    2.9711   -4.4030   -4.0756 H   0  0  0  0  0  0  0  0  0  0  0  0
    1.2135   -4.6861   -4.1274 H   0  0  0  0  0  0  0  0  0  0  0  0
    1.9871   -3.5650   -5.2748 H   0  0  0  0  0  0  0  0  0  0  0  0
    2.9461   -3.7003   -1.6892 H   0  0  0  0  0  0  0  0  0  0  0  0
    2.5451   -1.8694   -0.0893 H   0  0  0  0  0  0  0  0  0  0  0  0
    3.1947    2.6184    2.1372 H   0  0  0  0  0  0  0  0  0  0  0  0
    1.8074    4.2994    3.2763 H   0  0  0  0  0  0  0  0  0  0  0  0
   -0.4567    5.7601    2.7851 H   0  0  0  0  0  0  0  0  0  0  0  0
   -0.7750    4.6190    4.1105 H   0  0  0  0  0  0  0  0  0  0  0  0
   -1.9056    4.7465    2.7569 H   0  0  0  0  0  0  0  0  0  0  0  0
   -1.6764    2.8647    1.1868 H   0  0  0  0  0  0  0  0  0  0  0  0
   -1.6138   -0.1467   -1.3422 H   0  0  0  0  0  0  0  0  0  0  0  0
   -2.0078    1.5059   -0.9603 H   0  0  0  0  0  0  0  0  0  0  0  0
   -1.1716   -1.9991   -0.4744 H   0  0  0  0  0  0  0  0  0  0  0  0
   -0.4280   -2.1044    1.1463 H   0  0  0  0  0  0  0  0  0  0  0  0
   -1.8070   -3.1470    0.7048 H   0  0  0  0  0  0  0  0  0  0  0  0
   -3.6171   -2.4056    2.1058 H   0  0  0  0  0  0  0  0  0  0  0  0
   -2.2645   -1.7964    3.1008 H   0  0  0  0  0  0  0  0  0  0  0  0
   -3.6325   -0.7333    2.7076 H   0  0  0  0  0  0  0  0  0  0  0  0
    0.1507    0.1763   -3.0292 H   0  0  0  0  0  0  0  0  0  0  0  0
    0.5382   -1.6525   -4.6230 H   0  0  0  0  0  0  0  0  0  0  0  0
  1  2  1  0
  2  3  2  0
  3  4  1  0
  4  5  2  0
  5  6  1  0
  6  7  1  0
  7  8  2  0
  8  9  1  0
  9 10  2  0
 10 11  1  0
 11 12  1  0
 11 13  2  0
 13 14  1  0
 14 15  1  0
 15 16  1  0
 16 17  1  0
 17 18  2  0
 17 19  1  0
 19 20  1  0
 19 21  1  0
  5 22  1  0
 22 23  2  0
 23  2  1  0
 15  6  2  0
 14  8  1  0
  1 24  1  0
  1 25  1  0
  1 26  1  0
  3 27  1  0
  4 28  1  0
  9 29  1  0
 10 30  1  0
 12 31  1  0
 12 32  1  0
 12 33  1  0
 13 34  1  0
 16 35  1  0
 16 36  1  0
 20 37  1  0
 20 38  1  0
 20 39  1  0
 21 40  1  0
 21 41  1  0
 21 42  1  0
 22 43  1  0
 23 44  1  0
M  END
$$$$
