zopiclone
     RDKit          3D

 44 47  0  0  0  0  0  0  0  0999 V2000
    5.2596   -2.0559   -0.9255 C   0  0  0  0  0  0  0  0  0  0  0  0
    3.9098   -1.9788   -0.3743 N   0  0  0  0  0  0  0  0  0  0  0  0
    3.5777   -0.5914    0.0060 C   0  0  0  0  0  0  0  0  0  0  0  0
    2.0686   -0.3564    0.1890 C   0  0  0  0  0  0  0  0  0  0  0  0
    1.3135   -0.6868   -1.0198 N   0  0  0  0  0  0  0  0  0  0  0  0
    0.0327   -0.2360   -1.2577 C   0  0  0  0  0  0  0  0  0  0  0  0
   -0.6040   -0.4998   -2.2700 O   0  0  0  0  0  0  0  0  0  0  0  0
   -0.4345    0.5269   -0.2392 O   0  0  0  0  0  0  0  0  0  0  0  0
   -1.7674    0.9935   -0.4256 C   0  0  0  0  0  0  0  0  0  0  0  0
   -1.7158    2.4299   -0.8858 C   0  0  0  0  0  0  0  0  0  0  0  0
   -1.2316    2.9115   -2.0537 N   0  0  0  0  0  0  0  0  0  0  0  0
   -1.3130    4.2629   -2.1655 C   0  0  0  0  0  0  0  0  0  0  0  0
   -1.8451    5.0773   -1.1628 C   0  0  0  0  0  0  0  0  0  0  0  0
   -2.3259    4.5891    0.0073 N   0  0  0  0  0  0  0  0  0  0  0  0
   -2.2342    3.2475    0.0953 C   0  0  0  0  0  0  0  0  0  0  0  0
   -2.6767    2.4183    1.2251 C   0  0  0  0  0  0  0  0  0  0  0  0
   -3.1885    2.8666    2.2354 O   0  0  0  0  0  0  0  0  0  0  0  0
   -2.4157    1.0987    0.8772 N   0  0  0  0  0  0  0  0  0  0  0  0
   -2.7331   -0.0621    1.6016 C   0  0  0  0  0  0  0  0  0  0  0  0
   -3.3118   -0.0157    2.8682 C   0  0  0  0  0  0  0  0  0  0  0  0
   -3.6080   -1.2071    3.5384 C   0  0  0  0  0  0  0  0  0  0  0  0
   -3.3215   -2.4180    2.9294 C   0  0  0  0  0  0  0  0  0  0  0  0
   -3.6660   -3.9025    3.7140 Cl  0  0  0  0  0  0  0  0  0  0  0  0
   -2.7504   -2.3885    1.6714 C   0  0  0  0  0  0  0  0  0  0  0  0
   -2.4560   -1.2451    1.0029 N   0  0  0  0  0  0  0  0  0  0  0  0
    1.9664   -1.5742   -1.9771 C   0  0  0  0  0  0  0  0  0  0  0  0
    2.9066   -2.5759   -1.2817 C   0  0  0  0  0  0  0  0  0  0  0  0
    5.3491   -1.5121   -1.8727 H   0  0  0  0  0  0  0  0  0  0  0  0
    5.5452   -3.0996   -1.0978 H   0  0  0  0  0  0  0  0  0  0  0  0
    5.9891   -1.6441   -0.2193 H   0  0  0  0  0  0  0  0  0  0  0  0
    4.0948   -0.3436    0.9401 H   0  0  0  0  0  0  0  0  0  0  0  0
    3.9376    0.1082   -0.7609 H   0  0  0  0  0  0  0  0  0  0  0  0
    1.6764   -0.9818    1.0000 H   0  0  0  0  0  0  0  0  0  0  0  0
    1.8856    0.6894    0.4593 H   0  0  0  0  0  0  0  0  0  0  0  0
   -2.3947    0.3887   -1.0925 H   0  0  0  0  0  0  0  0  0  0  0  0
   -0.9361    4.6846   -3.0917 H   0  0  0  0  0  0  0  0  0  0  0  0
   -1.8965    6.1546   -1.2827 H   0  0  0  0  0  0  0  0  0  0  0  0
   -3.5403    0.9206    3.3649 H   0  0  0  0  0  0  0  0  0  0  0  0
   -4.0574   -1.1726    4.5269 H   0  0  0  0  0  0  0  0  0  0  0  0
   -2.5030   -3.3042    1.1419 H   0  0  0  0  0  0  0  0  0  0  0  0
    1.2157   -2.1138   -2.5646 H   0  0  0  0  0  0  0  0  0  0  0  0
    2.5332   -0.9414   -2.6706 H   0  0  0  0  0  0  0  0  0  0  0  0
    3.3761   -3.2186   -2.0367 H   0  0  0  0  0  0  0  0  0  0  0  0
    2.2891   -3.2428   -0.6660 H   0  0  0  0  0  0  0  0  0  0  0  0
  1  2  1  0
  2  3  1  0
  3  4  1  0
  4  5  1  0
  5  6  1  0
  6  7  2  0
  6  8  1  0
  8  9  1  0
  9 10  1  0
 10 11  2  0
 11 12  1  0
 12 13  2  0
 13 14  1  0
 14 15  2  0
 15 16  1  0
 16 17  2  0
 16 18  1  0
 18 19  1  0
 19 20  2  0
 20 21  1  0
 21 22  2  0
 22 23  1  0
 22 24  1  0
 24 25  2  0
  5 26  1  0
 26 27  1  0
 27  2  1  0
 18  9  1  0
 25 19  1  0
 15 10  1  0
  1 28  1  0
  1 29  1  0
  1 30  1  0
  3 31  1  0
  3 32  1  0
  4 33  1  0
  4 34  1  0
  9 35  1  0
 12 36  1  0
 13 37  1  0
 20 38  1  0
 21 39  1  0
 24 40  1  0
 26 41  1  0
 26 42  1  0
 27 43  1  0
 27 44  1  0
M  END
$$$$
