
     RDKit          3D

 22 25  0  0  0  0  0  0  0  0999 V2000
   -4.1139    0.5205   -0.6485 C   0  0  0  0  0  0  0  0  0  0  0  0
   -3.4034   -0.6315   -0.0453 C   0  0  0  0  0  0  0  0  0  0  0  0
   -3.8662   -1.8653   -0.0405 N   0  0  0  0  0  0  0  0  0  0  0  0
   -2.8961   -2.6866    0.4611 N   0  0  0  0  0  0  0  0  0  0  0  0
   -1.8524   -1.9441    0.7605 C   0  0  0  0  0  0  0  0  0  0  0  0
   -2.1286   -0.6191    0.4997 N   0  0  0  0  0  0  0  0  0  0  0  0
   -1.2856    0.4739    0.8280 C   0  0  0  0  0  0  0  0  0  0  0  0
   -1.8629    1.6794    1.2622 C   0  0  0  0  0  0  0  0  0  0  0  0
   -1.0566    2.7404    1.6827 C   0  0  0  0  0  0  0  0  0  0  0  0
    0.3266    2.6015    1.6861 C   0  0  0  0  0  0  0  0  0  0  0  0
    1.3146    3.9024    2.2217 Cl  0  0  0  0  0  0  0  0  0  0  0  0
    0.9156    1.4158    1.2565 C   0  0  0  0  0  0  0  0  0  0  0  0
    0.1182    0.3490    0.8041 C   0  0  0  0  0  0  0  0  0  0  0  0
    0.8335   -0.8451    0.2458 C   0  0  0  0  0  0  0  0  0  0  0  0
    1.9759   -0.6147   -0.6984 C   0  0  0  0  0  0  0  0  0  0  0  0
    3.0815   -1.4722   -0.6483 C   0  0  0  0  0  0  0  0  0  0  0  0
    4.1569   -1.2797   -1.5167 C   0  0  0  0  0  0  0  0  0  0  0  0
    4.1269   -0.2385   -2.4438 C   0  0  0  0  0  0  0  0  0  0  0  0
    3.0192    0.6065   -2.5113 C   0  0  0  0  0  0  0  0  0  0  0  0
    1.9404    0.4178   -1.6447 C   0  0  0  0  0  0  0  0  0  0  0  0
    0.5411   -2.0724    0.5135 N   0  0  0  0  0  0  0  0  0  0  0  0
   -0.5847   -2.3884    1.3813 C   0  0  0  0  0  0  0  0  0  0  0  0
  1  2  1  0
  2  3  2  0
  3  4  1  0
  4  5  2  0
  5  6  1  0
  6  7  1  0
  7  8  2  0
  8  9  1  0
  9 10  2  0
 10 11  1  0
 10 12  1  0
 12 13  2  0
 13 14  1  0
 14 15  1  0
 15 16  2  0
 16 17  1  0
 17 18  2  0
 18 19  1  0
 19 20  2  0
 14 21  2  0
 21 22  1  0
  6  2  1  0
 13  7  1  0
 20 15  1  0
 22  5  1  0
M  END
