
     RDKit          3D

 20 22  0  0  0  0  0  0  0  0999 V2000
   -3.3497   -0.8796   -1.4705 C   0  0  0  0  0  0  0  0  0  0  0  0
   -2.3038   -0.9300   -0.4574 N   0  0  0  0  0  0  0  0  0  0  0  0
   -1.9953   -2.1943    0.0605 C   0  0  0  0  0  0  0  0  0  0  0  0
   -2.5150   -3.2279   -0.3710 O   0  0  0  0  0  0  0  0  0  0  0  0
   -1.0481   -2.2470    1.2513 C   0  0  0  0  0  0  0  0  0  0  0  0
    0.2996   -1.9022    0.8111 N   0  0  0  0  0  0  0  0  0  0  0  0
    0.5325   -0.6772    0.4794 C   0  0  0  0  0  0  0  0  0  0  0  0
    1.9046   -0.3536   -0.0287 C   0  0  0  0  0  0  0  0  0  0  0  0
    3.0049   -1.0352    0.5052 C   0  0  0  0  0  0  0  0  0  0  0  0
    4.2932   -0.7523    0.0489 C   0  0  0  0  0  0  0  0  0  0  0  0
    4.4857    0.2032   -0.9483 C   0  0  0  0  0  0  0  0  0  0  0  0
    3.3913    0.8711   -1.4976 C   0  0  0  0  0  0  0  0  0  0  0  0
    2.1002    0.5913   -1.0444 C   0  0  0  0  0  0  0  0  0  0  0  0
   -0.4738    0.4204    0.5794 C   0  0  0  0  0  0  0  0  0  0  0  0
   -0.0434    1.6293    1.1580 C   0  0  0  0  0  0  0  0  0  0  0  0
   -0.8884    2.7322    1.1813 C   0  0  0  0  0  0  0  0  0  0  0  0
   -0.3512    4.2103    1.8746 Cl  0  0  0  0  0  0  0  0  0  0  0  0
   -2.1616    2.6462    0.6349 C   0  0  0  0  0  0  0  0  0  0  0  0
   -2.6015    1.4386    0.0826 C   0  0  0  0  0  0  0  0  0  0  0  0
   -1.7812    0.2937    0.0678 C   0  0  0  0  0  0  0  0  0  0  0  0
  1  2  1  0
  2  3  1  0
  3  4  2  0
  3  5  1  0
  5  6  1  0
  6  7  2  0
  7  8  1  0
  8  9  2  0
  9 10  1  0
 10 11  2  0
 11 12  1  0
 12 13  2  0
  7 14  1  0
 14 15  2  0
 15 16  1  0
 16 17  1  0
 16 18  2  0
 18 19  1  0
 19 20  2  0
 20  2  1  0
 13  8  1  0
 20 14  1  0
M  END
