
     RDKit          3D

 23 26  0  0  0  0  0  0  0  0999 V2000
    3.9079   -0.9098    1.2354 C   0  0  0  0  0  0  0  0  0  0  0  0
    3.2403   -1.2250   -0.0498 C   0  0  0  0  0  0  0  0  0  0  0  0
    3.5764   -2.2362   -0.8249 N   0  0  0  0  0  0  0  0  0  0  0  0
    2.6650   -2.3222   -1.8381 N   0  0  0  0  0  0  0  0  0  0  0  0
    1.7844   -1.3592   -1.6733 C   0  0  0  0  0  0  0  0  0  0  0  0
    2.1196   -0.5975   -0.5751 N   0  0  0  0  0  0  0  0  0  0  0  0
    1.4656    0.5941   -0.1636 C   0  0  0  0  0  0  0  0  0  0  0  0
    2.2306    1.6303    0.4007 C   0  0  0  0  0  0  0  0  0  0  0  0
    1.6320    2.8367    0.7708 C   0  0  0  0  0  0  0  0  0  0  0  0
    0.2699    3.0216    0.5720 C   0  0  0  0  0  0  0  0  0  0  0  0
   -0.4644    4.5106    1.0194 Cl  0  0  0  0  0  0  0  0  0  0  0  0
   -0.5039    2.0085    0.0118 C   0  0  0  0  0  0  0  0  0  0  0  0
    0.0807    0.7827   -0.3568 C   0  0  0  0  0  0  0  0  0  0  0  0
   -0.8409   -0.2921   -0.8493 C   0  0  0  0  0  0  0  0  0  0  0  0
   -2.1371   -0.4624   -0.1412 C   0  0  0  0  0  0  0  0  0  0  0  0
   -2.1088   -0.9961    1.1541 C   0  0  0  0  0  0  0  0  0  0  0  0
   -3.3026   -1.1877    1.8499 C   0  0  0  0  0  0  0  0  0  0  0  0
   -4.5190   -0.8521    1.2547 C   0  0  0  0  0  0  0  0  0  0  0  0
   -4.5463   -0.3243   -0.0387 C   0  0  0  0  0  0  0  0  0  0  0  0
   -3.3557   -0.1297   -0.7436 C   0  0  0  0  0  0  0  0  0  0  0  0
   -3.4482    0.5771   -2.3160 Cl  0  0  0  0  0  0  0  0  0  0  0  0
   -0.6058   -1.1161   -1.8103 N   0  0  0  0  0  0  0  0  0  0  0  0
    0.6427   -1.0333   -2.5534 C   0  0  0  0  0  0  0  0  0  0  0  0
  1  2  1  0
  2  3  2  0
  3  4  1  0
  4  5  2  0
  5  6  1  0
  6  7  1  0
  7  8  2  0
  8  9  1  0
  9 10  2  0
 10 11  1  0
 10 12  1  0
 12 13  2  0
 13 14  1  0
 14 15  1  0
 15 16  2  0
 16 17  1  0
 17 18  2  0
 18 19  1  0
 19 20  2  0
 20 21  1  0
 14 22  2  0
 22 23  1  0
  6  2  1  0
 13  7  1  0
 20 15  1  0
 23  5  1  0
M  END
