
     RDKit          3D

 23 25  0  0  0  0  0  0  0  0999 V2000
    4.7678   -3.5865   -1.1007 C   0  0  0  0  0  0  0  0  0  0  0  0
    3.8235   -2.4542   -0.8248 C   0  0  0  0  0  0  0  0  0  0  0  0
    3.3668   -2.2120    0.4765 C   0  0  0  0  0  0  0  0  0  0  0  0
    2.5157   -1.1347    0.7393 C   0  0  0  0  0  0  0  0  0  0  0  0
    2.1128   -0.2849   -0.2964 C   0  0  0  0  0  0  0  0  0  0  0  0
    1.2318    0.8363   -0.0447 C   0  0  0  0  0  0  0  0  0  0  0  0
    1.6030    2.1294   -0.3123 N   0  0  0  0  0  0  0  0  0  0  0  0
    0.5632    2.8629    0.0166 C   0  0  0  0  0  0  0  0  0  0  0  0
    0.3663    4.2709   -0.0302 C   0  0  0  0  0  0  0  0  0  0  0  0
   -0.8070    4.7991    0.3667 C   0  0  0  0  0  0  0  0  0  0  0  0
   -1.9028    3.9601    0.8456 C   0  0  0  0  0  0  0  0  0  0  0  0
   -3.1775    4.6322    1.2472 C   0  0  0  0  0  0  0  0  0  0  0  0
   -1.7136    2.6268    0.8900 C   0  0  0  0  0  0  0  0  0  0  0  0
   -0.4927    2.0829    0.4817 N   0  0  0  0  0  0  0  0  0  0  0  0
   -0.0622    0.7669    0.4460 C   0  0  0  0  0  0  0  0  0  0  0  0
   -0.9119   -0.3989    0.8410 C   0  0  0  0  0  0  0  0  0  0  0  0
   -1.9616   -0.7367   -0.2217 C   0  0  0  0  0  0  0  0  0  0  0  0
   -2.2659    0.0587   -1.1127 O   0  0  0  0  0  0  0  0  0  0  0  0
   -2.5979   -1.9757   -0.1036 N   0  0  0  0  0  0  0  0  0  0  0  0
   -2.1904   -3.0106    0.8337 C   0  0  0  0  0  0  0  0  0  0  0  0
   -3.4708   -2.4023   -1.1861 C   0  0  0  0  0  0  0  0  0  0  0  0
    2.5930   -0.5063   -1.5904 C   0  0  0  0  0  0  0  0  0  0  0  0
    3.4426   -1.5839   -1.8534 C   0  0  0  0  0  0  0  0  0  0  0  0
  1  2  1  0
  2  3  2  0
  3  4  1  0
  4  5  2  0
  5  6  1  0
  6  7  1  0
  7  8  2  0
  8  9  1  0
  9 10  2  0
 10 11  1  0
 11 12  1  0
 11 13  2  0
 13 14  1  0
 14 15  1  0
 15 16  1  0
 16 17  1  0
 17 18  2  0
 17 19  1  0
 19 20  1  0
 19 21  1  0
  5 22  1  0
 22 23  2  0
 23  2  1  0
 15  6  2  0
 14  8  1  0
M  END
